!- Windows Line endings 

VERSION,
    8.8;                      !- Version Identifier

SOLARCOLLECTORPERFORMANCE:FLATPLATE,
    ACR Solar International Skyline 20-01,    !- Name
    1.87,                     !- Gross Area
    Water,                    !- Test Fluid
    3.16e-05,                 !- Test Flow Rate
    Inlet,                    !- Test Correlation Type
    0.605,                    !- Coefficient 1 of Efficiency Equation
    3.84,                     !- Coefficient 2 of Efficiency Equation
    0,                        !- Coefficient 3 of Efficiency Equation
    0.19,                     !- Coefficient 2 of Incident Angle Modifier
    0;                        !- Coefficient 3 of Incident Angle Modifier

SOLARCOLLECTORPERFORMANCE:FLATPLATE,
    ACR Solar International Skyline 10-01,    !- Name
    0.93,                     !- Gross Area
    Water,                    !- Test Fluid
    3.16e-05,                 !- Test Flow Rate
    Inlet,                    !- Test Correlation Type
    0.603,                    !- Coefficient 1 of Efficiency Equation
    3.87,                     !- Coefficient 2 of Efficiency Equation
    0,                        !- Coefficient 3 of Efficiency Equation
    0.19,                     !- Coefficient 2 of Incident Angle Modifier
    0;                        !- Coefficient 3 of Incident Angle Modifier

SOLARCOLLECTORPERFORMANCE:FLATPLATE,
    Alternate Energy Technologies Alternate Energy AE-21,    !- Name
    1.93,                     !- Gross Area
    Water,                    !- Test Fluid
    3.88e-05,                 !- Test Flow Rate
    Inlet,                    !- Test Correlation Type
    0.691,                    !- Coefficient 1 of Efficiency Equation
    3.4,                      !- Coefficient 2 of Efficiency Equation
    0,                        !- Coefficient 3 of Efficiency Equation
    0.19,                     !- Coefficient 2 of Incident Angle Modifier
    0;                        !- Coefficient 3 of Incident Angle Modifier

SOLARCOLLECTORPERFORMANCE:FLATPLATE,
    Alternate Energy Technologies Alternate Energy AE-24,    !- Name
    2.21,                     !- Gross Area
    Water,                    !- Test Fluid
    3.88e-05,                 !- Test Flow Rate
    Inlet,                    !- Test Correlation Type
    0.691,                    !- Coefficient 1 of Efficiency Equation
    3.4,                      !- Coefficient 2 of Efficiency Equation
    0,                        !- Coefficient 3 of Efficiency Equation
    0.19,                     !- Coefficient 2 of Incident Angle Modifier
    0;                        !- Coefficient 3 of Incident Angle Modifier

SOLARCOLLECTORPERFORMANCE:FLATPLATE,
    Alternate Energy Technologies Alternate Energy AE-26,    !- Name
    2.35,                     !- Gross Area
    Water,                    !- Test Fluid
    3.88e-05,                 !- Test Flow Rate
    Inlet,                    !- Test Correlation Type
    0.691,                    !- Coefficient 1 of Efficiency Equation
    3.4,                      !- Coefficient 2 of Efficiency Equation
    0,                        !- Coefficient 3 of Efficiency Equation
    0.19,                     !- Coefficient 2 of Incident Angle Modifier
    0;                        !- Coefficient 3 of Incident Angle Modifier

SOLARCOLLECTORPERFORMANCE:FLATPLATE,
    Alternate Energy Technologies Alternate Energy AE-28,    !- Name
    2.6,                      !- Gross Area
    Water,                    !- Test Fluid
    3.88e-05,                 !- Test Flow Rate
    Inlet,                    !- Test Correlation Type
    0.691,                    !- Coefficient 1 of Efficiency Equation
    3.4,                      !- Coefficient 2 of Efficiency Equation
    0,                        !- Coefficient 3 of Efficiency Equation
    0.19,                     !- Coefficient 2 of Incident Angle Modifier
    0;                        !- Coefficient 3 of Incident Angle Modifier

SOLARCOLLECTORPERFORMANCE:FLATPLATE,
    Alternate Energy Technologies Alternate Energy AE-32,    !- Name
    2.96,                     !- Gross Area
    Water,                    !- Test Fluid
    3.88e-05,                 !- Test Flow Rate
    Inlet,                    !- Test Correlation Type
    0.691,                    !- Coefficient 1 of Efficiency Equation
    3.4,                      !- Coefficient 2 of Efficiency Equation
    0,                        !- Coefficient 3 of Efficiency Equation
    0.19,                     !- Coefficient 2 of Incident Angle Modifier
    0;                        !- Coefficient 3 of Incident Angle Modifier

SOLARCOLLECTORPERFORMANCE:FLATPLATE,
    Alternate Energy Technologies Alternate Energy AE-40,    !- Name
    3.7,                      !- Gross Area
    Water,                    !- Test Fluid
    3.88e-05,                 !- Test Flow Rate
    Inlet,                    !- Test Correlation Type
    0.691,                    !- Coefficient 1 of Efficiency Equation
    3.4,                      !- Coefficient 2 of Efficiency Equation
    0,                        !- Coefficient 3 of Efficiency Equation
    0.19,                     !- Coefficient 2 of Incident Angle Modifier
    0;                        !- Coefficient 3 of Incident Angle Modifier

SOLARCOLLECTORPERFORMANCE:FLATPLATE,
    Alternate Energy Technologies Alternate Energy AE-56,    !- Name
    5.18,                     !- Gross Area
    Water,                    !- Test Fluid
    3.88e-05,                 !- Test Flow Rate
    Inlet,                    !- Test Correlation Type
    0.691,                    !- Coefficient 1 of Efficiency Equation
    3.4,                      !- Coefficient 2 of Efficiency Equation
    0,                        !- Coefficient 3 of Efficiency Equation
    0.19,                     !- Coefficient 2 of Incident Angle Modifier
    0;                        !- Coefficient 3 of Incident Angle Modifier

SOLARCOLLECTORPERFORMANCE:FLATPLATE,
    Alternate Energy Technologies Alternate Energy AE-50,    !- Name
    4.66,                     !- Gross Area
    Water,                    !- Test Fluid
    3.88e-05,                 !- Test Flow Rate
    Inlet,                    !- Test Correlation Type
    0.691,                    !- Coefficient 1 of Efficiency Equation
    3.4,                      !- Coefficient 2 of Efficiency Equation
    0,                        !- Coefficient 3 of Efficiency Equation
    0.19,                     !- Coefficient 2 of Incident Angle Modifier
    0;                        !- Coefficient 3 of Incident Angle Modifier

SOLARCOLLECTORPERFORMANCE:FLATPLATE,
    Alternate Energy Technologies Morning Star MSC-40,    !- Name
    3.92,                     !- Gross Area
    Water,                    !- Test Fluid
    3.88e-05,                 !- Test Flow Rate
    Inlet,                    !- Test Correlation Type
    0.691,                    !- Coefficient 1 of Efficiency Equation
    3.4,                      !- Coefficient 2 of Efficiency Equation
    0,                        !- Coefficient 3 of Efficiency Equation
    0.19,                     !- Coefficient 2 of Incident Angle Modifier
    0;                        !- Coefficient 3 of Incident Angle Modifier

SOLARCOLLECTORPERFORMANCE:FLATPLATE,
    Alternate Energy Technologies Morning Star MSC-24,    !- Name
    2.28,                     !- Gross Area
    Water,                    !- Test Fluid
    3.88e-05,                 !- Test Flow Rate
    Inlet,                    !- Test Correlation Type
    0.691,                    !- Coefficient 1 of Efficiency Equation
    3.4,                      !- Coefficient 2 of Efficiency Equation
    0,                        !- Coefficient 3 of Efficiency Equation
    0.19,                     !- Coefficient 2 of Incident Angle Modifier
    0;                        !- Coefficient 3 of Incident Angle Modifier

SOLARCOLLECTORPERFORMANCE:FLATPLATE,
    Alternate Energy Technologies Morning Star MSC-26,    !- Name
    2.42,                     !- Gross Area
    Water,                    !- Test Fluid
    3.88e-05,                 !- Test Flow Rate
    Inlet,                    !- Test Correlation Type
    0.691,                    !- Coefficient 1 of Efficiency Equation
    3.4,                      !- Coefficient 2 of Efficiency Equation
    0,                        !- Coefficient 3 of Efficiency Equation
    0.19,                     !- Coefficient 2 of Incident Angle Modifier
    0;                        !- Coefficient 3 of Incident Angle Modifier

SOLARCOLLECTORPERFORMANCE:FLATPLATE,
    Alternate Energy Technologies Morning Star MSC-21,    !- Name
    2,                        !- Gross Area
    Water,                    !- Test Fluid
    3.88e-05,                 !- Test Flow Rate
    Inlet,                    !- Test Correlation Type
    0.691,                    !- Coefficient 1 of Efficiency Equation
    3.4,                      !- Coefficient 2 of Efficiency Equation
    0,                        !- Coefficient 3 of Efficiency Equation
    0.19,                     !- Coefficient 2 of Incident Angle Modifier
    0;                        !- Coefficient 3 of Incident Angle Modifier

SOLARCOLLECTORPERFORMANCE:FLATPLATE,
    Alternate Energy Technologies Morning Star MSC-32,    !- Name
    3.03,                     !- Gross Area
    Water,                    !- Test Fluid
    3.88e-05,                 !- Test Flow Rate
    Inlet,                    !- Test Correlation Type
    0.691,                    !- Coefficient 1 of Efficiency Equation
    3.4,                      !- Coefficient 2 of Efficiency Equation
    0,                        !- Coefficient 3 of Efficiency Equation
    0.19,                     !- Coefficient 2 of Incident Angle Modifier
    0;                        !- Coefficient 3 of Incident Angle Modifier

SOLARCOLLECTORPERFORMANCE:FLATPLATE,
    Alternate Energy Technologies Morning Star MSC-28,    !- Name
    2.66,                     !- Gross Area
    Water,                    !- Test Fluid
    3.88e-05,                 !- Test Flow Rate
    Inlet,                    !- Test Correlation Type
    0.691,                    !- Coefficient 1 of Efficiency Equation
    3.4,                      !- Coefficient 2 of Efficiency Equation
    0,                        !- Coefficient 3 of Efficiency Equation
    0.19,                     !- Coefficient 2 of Incident Angle Modifier
    0;                        !- Coefficient 3 of Incident Angle Modifier

SOLARCOLLECTORPERFORMANCE:FLATPLATE,
    Alternate Energy Technologies Starfire ST-21E,    !- Name
    1.97,                     !- Gross Area
    Water,                    !- Test Fluid
    3.85e-05,                 !- Test Flow Rate
    Inlet,                    !- Test Correlation Type
    0.665,                    !- Coefficient 1 of Efficiency Equation
    4.72,                     !- Coefficient 2 of Efficiency Equation
    0,                        !- Coefficient 3 of Efficiency Equation
    0.05,                     !- Coefficient 2 of Incident Angle Modifier
    0;                        !- Coefficient 3 of Incident Angle Modifier

SOLARCOLLECTORPERFORMANCE:FLATPLATE,
    Alternate Energy Technologies Starfire ST-40E,    !- Name
    3.58,                     !- Gross Area
    Water,                    !- Test Fluid
    3.85e-05,                 !- Test Flow Rate
    Inlet,                    !- Test Correlation Type
    0.665,                    !- Coefficient 1 of Efficiency Equation
    4.72,                     !- Coefficient 2 of Efficiency Equation
    0,                        !- Coefficient 3 of Efficiency Equation
    0.05,                     !- Coefficient 2 of Incident Angle Modifier
    0;                        !- Coefficient 3 of Incident Angle Modifier

SOLARCOLLECTORPERFORMANCE:FLATPLATE,
    Alternate Energy Technologies American Energy AE-21E,    !- Name
    1.93,                     !- Gross Area
    Water,                    !- Test Fluid
    3.85e-05,                 !- Test Flow Rate
    Inlet,                    !- Test Correlation Type
    0.638,                    !- Coefficient 1 of Efficiency Equation
    4.26,                     !- Coefficient 2 of Efficiency Equation
    0,                        !- Coefficient 3 of Efficiency Equation
    -0.02,                    !- Coefficient 2 of Incident Angle Modifier
    0;                        !- Coefficient 3 of Incident Angle Modifier

SOLARCOLLECTORPERFORMANCE:FLATPLATE,
    Alternate Energy Technologies American Energy AE-24E,    !- Name
    2.21,                     !- Gross Area
    Water,                    !- Test Fluid
    3.85e-05,                 !- Test Flow Rate
    Inlet,                    !- Test Correlation Type
    0.638,                    !- Coefficient 1 of Efficiency Equation
    4.26,                     !- Coefficient 2 of Efficiency Equation
    0,                        !- Coefficient 3 of Efficiency Equation
    -0.02,                    !- Coefficient 2 of Incident Angle Modifier
    0;                        !- Coefficient 3 of Incident Angle Modifier

SOLARCOLLECTORPERFORMANCE:FLATPLATE,
    Alternate Energy Technologies American Energy AE-40E,    !- Name
    3.7,                      !- Gross Area
    Water,                    !- Test Fluid
    3.85e-05,                 !- Test Flow Rate
    Inlet,                    !- Test Correlation Type
    0.638,                    !- Coefficient 1 of Efficiency Equation
    4.26,                     !- Coefficient 2 of Efficiency Equation
    0,                        !- Coefficient 3 of Efficiency Equation
    -0.02,                    !- Coefficient 2 of Incident Angle Modifier
    0;                        !- Coefficient 3 of Incident Angle Modifier

SOLARCOLLECTORPERFORMANCE:FLATPLATE,
    Alternate Energy Technologies Morning Star MSC-21E,    !- Name
    2,                        !- Gross Area
    Water,                    !- Test Fluid
    3.85e-05,                 !- Test Flow Rate
    Inlet,                    !- Test Correlation Type
    0.638,                    !- Coefficient 1 of Efficiency Equation
    4.26,                     !- Coefficient 2 of Efficiency Equation
    0,                        !- Coefficient 3 of Efficiency Equation
    -0.02,                    !- Coefficient 2 of Incident Angle Modifier
    0;                        !- Coefficient 3 of Incident Angle Modifier

SOLARCOLLECTORPERFORMANCE:FLATPLATE,
    Alternate Energy Technologies Morning Star MSC-28E,    !- Name
    2.65,                     !- Gross Area
    Water,                    !- Test Fluid
    3.85e-05,                 !- Test Flow Rate
    Inlet,                    !- Test Correlation Type
    0.638,                    !- Coefficient 1 of Efficiency Equation
    4.26,                     !- Coefficient 2 of Efficiency Equation
    0,                        !- Coefficient 3 of Efficiency Equation
    -0.02,                    !- Coefficient 2 of Incident Angle Modifier
    0;                        !- Coefficient 3 of Incident Angle Modifier

SOLARCOLLECTORPERFORMANCE:FLATPLATE,
    Alternate Energy Technologies American Energy AE-26E,    !- Name
    2.36,                     !- Gross Area
    Water,                    !- Test Fluid
    3.85e-05,                 !- Test Flow Rate
    Inlet,                    !- Test Correlation Type
    0.638,                    !- Coefficient 1 of Efficiency Equation
    4.26,                     !- Coefficient 2 of Efficiency Equation
    0,                        !- Coefficient 3 of Efficiency Equation
    -0.02,                    !- Coefficient 2 of Incident Angle Modifier
    0;                        !- Coefficient 3 of Incident Angle Modifier

SOLARCOLLECTORPERFORMANCE:FLATPLATE,
    Alternate Energy Technologies American Energy AE-32E,    !- Name
    2.97,                     !- Gross Area
    Water,                    !- Test Fluid
    3.85e-05,                 !- Test Flow Rate
    Inlet,                    !- Test Correlation Type
    0.638,                    !- Coefficient 1 of Efficiency Equation
    4.26,                     !- Coefficient 2 of Efficiency Equation
    0,                        !- Coefficient 3 of Efficiency Equation
    -0.02,                    !- Coefficient 2 of Incident Angle Modifier
    0;                        !- Coefficient 3 of Incident Angle Modifier

SOLARCOLLECTORPERFORMANCE:FLATPLATE,
    Alternate Energy Technologies Morning Star MSC-26E,    !- Name
    2.41,                     !- Gross Area
    Water,                    !- Test Fluid
    3.85e-05,                 !- Test Flow Rate
    Inlet,                    !- Test Correlation Type
    0.638,                    !- Coefficient 1 of Efficiency Equation
    4.26,                     !- Coefficient 2 of Efficiency Equation
    0,                        !- Coefficient 3 of Efficiency Equation
    -0.02,                    !- Coefficient 2 of Incident Angle Modifier
    0;                        !- Coefficient 3 of Incident Angle Modifier

SOLARCOLLECTORPERFORMANCE:FLATPLATE,
    Alternate Energy Technologies Morning Star MSC-32E,    !- Name
    3.02,                     !- Gross Area
    Water,                    !- Test Fluid
    3.85e-05,                 !- Test Flow Rate
    Inlet,                    !- Test Correlation Type
    0.638,                    !- Coefficient 1 of Efficiency Equation
    4.26,                     !- Coefficient 2 of Efficiency Equation
    0,                        !- Coefficient 3 of Efficiency Equation
    -0.02,                    !- Coefficient 2 of Incident Angle Modifier
    0;                        !- Coefficient 3 of Incident Angle Modifier

SOLARCOLLECTORPERFORMANCE:FLATPLATE,
    Alternate Energy Technologies Morning Star MSC-40E,    !- Name
    3.76,                     !- Gross Area
    Water,                    !- Test Fluid
    3.85e-05,                 !- Test Flow Rate
    Inlet,                    !- Test Correlation Type
    0.638,                    !- Coefficient 1 of Efficiency Equation
    4.26,                     !- Coefficient 2 of Efficiency Equation
    0,                        !- Coefficient 3 of Efficiency Equation
    -0.02,                    !- Coefficient 2 of Incident Angle Modifier
    0;                        !- Coefficient 3 of Incident Angle Modifier

SOLARCOLLECTORPERFORMANCE:FLATPLATE,
    Alternate Energy Technologies Morning Star MSC-24E,    !- Name
    2.27,                     !- Gross Area
    Water,                    !- Test Fluid
    3.85e-05,                 !- Test Flow Rate
    Inlet,                    !- Test Correlation Type
    0.638,                    !- Coefficient 1 of Efficiency Equation
    4.26,                     !- Coefficient 2 of Efficiency Equation
    0,                        !- Coefficient 3 of Efficiency Equation
    -0.02,                    !- Coefficient 2 of Incident Angle Modifier
    0;                        !- Coefficient 3 of Incident Angle Modifier

SOLARCOLLECTORPERFORMANCE:FLATPLATE,
    Alternate Energy Technologies American Energy AE-28E,    !- Name
    2.6,                      !- Gross Area
    Water,                    !- Test Fluid
    3.85e-05,                 !- Test Flow Rate
    Inlet,                    !- Test Correlation Type
    0.638,                    !- Coefficient 1 of Efficiency Equation
    4.26,                     !- Coefficient 2 of Efficiency Equation
    0,                        !- Coefficient 3 of Efficiency Equation
    -0.02,                    !- Coefficient 2 of Incident Angle Modifier
    0;                        !- Coefficient 3 of Incident Angle Modifier

SOLARCOLLECTORPERFORMANCE:FLATPLATE,
    Baymak Group BAYMAK Advanced XL,    !- Name
    2.51,                     !- Gross Area
    Water,                    !- Test Fluid
    4.72e-05,                 !- Test Flow Rate
    Inlet,                    !- Test Correlation Type
    0.708,                    !- Coefficient 1 of Efficiency Equation
    3.73,                     !- Coefficient 2 of Efficiency Equation
    0,                        !- Coefficient 3 of Efficiency Equation
    0.13,                     !- Coefficient 2 of Incident Angle Modifier
    0;                        !- Coefficient 3 of Incident Angle Modifier

SOLARCOLLECTORPERFORMANCE:FLATPLATE,
    Bosch Thermotechnology Corp. Bosch Bosch FKT-1W,    !- Name
    2.41,                     !- Gross Area
    Water,                    !- Test Fluid
    4.8e-05,                  !- Test Flow Rate
    Inlet,                    !- Test Correlation Type
    0.739,                    !- Coefficient 1 of Efficiency Equation
    3.44,                     !- Coefficient 2 of Efficiency Equation
    0,                        !- Coefficient 3 of Efficiency Equation
    0.1,                      !- Coefficient 2 of Incident Angle Modifier
    0;                        !- Coefficient 3 of Incident Angle Modifier

SOLARCOLLECTORPERFORMANCE:FLATPLATE,
    Bosch Thermotechnology Corp. Bosch Bosch FKT-1 s+w (Vert. & Horiz.),    !- Name
    2.41,                     !- Gross Area
    Water,                    !- Test Fluid
    4.8e-05,                  !- Test Flow Rate
    Inlet,                    !- Test Correlation Type
    0.739,                    !- Coefficient 1 of Efficiency Equation
    3.44,                     !- Coefficient 2 of Efficiency Equation
    0,                        !- Coefficient 3 of Efficiency Equation
    0.1,                      !- Coefficient 2 of Incident Angle Modifier
    0;                        !- Coefficient 3 of Incident Angle Modifier

SOLARCOLLECTORPERFORMANCE:FLATPLATE,
    Bosch Thermotechnology Corp. Buderus Buderus SKN 3.0-s+w (Vert. & Horiz.),    !- Name
    2.41,                     !- Gross Area
    Water,                    !- Test Fluid
    4.8e-05,                  !- Test Flow Rate
    Inlet,                    !- Test Correlation Type
    0.72,                     !- Coefficient 1 of Efficiency Equation
    4.02,                     !- Coefficient 2 of Efficiency Equation
    0,                        !- Coefficient 3 of Efficiency Equation
    0.02,                     !- Coefficient 2 of Incident Angle Modifier
    0;                        !- Coefficient 3 of Incident Angle Modifier

SOLARCOLLECTORPERFORMANCE:FLATPLATE,
    Bosch Thermotechnology Corp. Bosch Bosch FKC-1 s+w (Vert. & Horiz.),    !- Name
    2.41,                     !- Gross Area
    Water,                    !- Test Fluid
    4.8e-05,                  !- Test Flow Rate
    Inlet,                    !- Test Correlation Type
    0.72,                     !- Coefficient 1 of Efficiency Equation
    4.02,                     !- Coefficient 2 of Efficiency Equation
    0,                        !- Coefficient 3 of Efficiency Equation
    0.02,                     !- Coefficient 2 of Incident Angle Modifier
    0;                        !- Coefficient 3 of Incident Angle Modifier

SOLARCOLLECTORPERFORMANCE:FLATPLATE,
    Bosch Thermotechnology Corp. Buderus Buderus SKS 4.0-s+w (Vert. & Horiz.),    !- Name
    2.41,                     !- Gross Area
    Water,                    !- Test Fluid
    4.8e-05,                  !- Test Flow Rate
    Inlet,                    !- Test Correlation Type
    0.709,                    !- Coefficient 1 of Efficiency Equation
    3.26,                     !- Coefficient 2 of Efficiency Equation
    0,                        !- Coefficient 3 of Efficiency Equation
    0.01,                     !- Coefficient 2 of Incident Angle Modifier
    0;                        !- Coefficient 3 of Incident Angle Modifier

SOLARCOLLECTORPERFORMANCE:FLATPLATE,
    Bosch Thermotechnology Corp. Bosch Bosch FKB-1 (Vert.),    !- Name
    2.4,                      !- Gross Area
    Water,                    !- Test Fluid
    4.8e-05,                  !- Test Flow Rate
    Inlet,                    !- Test Correlation Type
    0.694,                    !- Coefficient 1 of Efficiency Equation
    3.13,                     !- Coefficient 2 of Efficiency Equation
    0,                        !- Coefficient 3 of Efficiency Equation
    0.06,                     !- Coefficient 2 of Incident Angle Modifier
    0;                        !- Coefficient 3 of Incident Angle Modifier

SOLARCOLLECTORPERFORMANCE:FLATPLATE,
    Bosch Thermotechnology Corp. Bosch FCC-1S,    !- Name
    2.08,                     !- Gross Area
    Water,                    !- Test Fluid
    4.28e-05,                 !- Test Flow Rate
    Inlet,                    !- Test Correlation Type
    0.686,                    !- Coefficient 1 of Efficiency Equation
    3.86,                     !- Coefficient 2 of Efficiency Equation
    0,                        !- Coefficient 3 of Efficiency Equation
    0.03,                     !- Coefficient 2 of Incident Angle Modifier
    0;                        !- Coefficient 3 of Incident Angle Modifier

SOLARCOLLECTORPERFORMANCE:FLATPLATE,
    Bubbling Springs Solar  Inc. Main Stream MS 40,    !- Name
    3.71,                     !- Gross Area
    Water,                    !- Test Fluid
    5.84e-05,                 !- Test Flow Rate
    Inlet,                    !- Test Correlation Type
    0.705,                    !- Coefficient 1 of Efficiency Equation
    4.32,                     !- Coefficient 2 of Efficiency Equation
    0,                        !- Coefficient 3 of Efficiency Equation
    0.34,                     !- Coefficient 2 of Incident Angle Modifier
    0;                        !- Coefficient 3 of Incident Angle Modifier

SOLARCOLLECTORPERFORMANCE:FLATPLATE,
    Bubbling Springs Solar  Inc. Main Stream MS 32,    !- Name
    2.98,                     !- Gross Area
    Water,                    !- Test Fluid
    5.84e-05,                 !- Test Flow Rate
    Inlet,                    !- Test Correlation Type
    0.702,                    !- Coefficient 1 of Efficiency Equation
    4.32,                     !- Coefficient 2 of Efficiency Equation
    0,                        !- Coefficient 3 of Efficiency Equation
    0.34,                     !- Coefficient 2 of Incident Angle Modifier
    0;                        !- Coefficient 3 of Incident Angle Modifier

SOLARCOLLECTORPERFORMANCE:FLATPLATE,
    Bubbling Springs Solar  Inc. Main Stream MS 29,    !- Name
    2.92,                     !- Gross Area
    Water,                    !- Test Fluid
    5.84e-05,                 !- Test Flow Rate
    Inlet,                    !- Test Correlation Type
    0.701,                    !- Coefficient 1 of Efficiency Equation
    4.31,                     !- Coefficient 2 of Efficiency Equation
    0,                        !- Coefficient 3 of Efficiency Equation
    0.34,                     !- Coefficient 2 of Incident Angle Modifier
    0;                        !- Coefficient 3 of Incident Angle Modifier

SOLARCOLLECTORPERFORMANCE:FLATPLATE,
    Caleffi Solar SolarFlat NAS10408,    !- Name
    2.96,                     !- Gross Area
    Water,                    !- Test Fluid
    3.88e-05,                 !- Test Flow Rate
    Inlet,                    !- Test Correlation Type
    0.691,                    !- Coefficient 1 of Efficiency Equation
    3.4,                      !- Coefficient 2 of Efficiency Equation
    0,                        !- Coefficient 3 of Efficiency Equation
    0.19,                     !- Coefficient 2 of Incident Angle Modifier
    0;                        !- Coefficient 3 of Incident Angle Modifier

SOLARCOLLECTORPERFORMANCE:FLATPLATE,
    Caleffi Solar SolarFlat NAS10410,    !- Name
    3.7,                      !- Gross Area
    Water,                    !- Test Fluid
    3.88e-05,                 !- Test Flow Rate
    Inlet,                    !- Test Correlation Type
    0.691,                    !- Coefficient 1 of Efficiency Equation
    3.4,                      !- Coefficient 2 of Efficiency Equation
    0,                        !- Coefficient 3 of Efficiency Equation
    0.19,                     !- Coefficient 2 of Incident Angle Modifier
    0;                        !- Coefficient 3 of Incident Angle Modifier

SOLARCOLLECTORPERFORMANCE:FLATPLATE,
    Caleffi Solar SolarFlat NAS10406,    !- Name
    2.35,                     !- Gross Area
    Water,                    !- Test Fluid
    3.88e-05,                 !- Test Flow Rate
    Inlet,                    !- Test Correlation Type
    0.691,                    !- Coefficient 1 of Efficiency Equation
    3.4,                      !- Coefficient 2 of Efficiency Equation
    0,                        !- Coefficient 3 of Efficiency Equation
    0.19,                     !- Coefficient 2 of Incident Angle Modifier
    0;                        !- Coefficient 3 of Incident Angle Modifier

SOLARCOLLECTORPERFORMANCE:FLATPLATE,
    Chromagen Chromagen CR-130-A-SP,    !- Name
    2.96,                     !- Gross Area
    Water,                    !- Test Fluid
    4.2e-05,                  !- Test Flow Rate
    Inlet,                    !- Test Correlation Type
    0.736,                    !- Coefficient 1 of Efficiency Equation
    3.54,                     !- Coefficient 2 of Efficiency Equation
    0,                        !- Coefficient 3 of Efficiency Equation
    0.22,                     !- Coefficient 2 of Incident Angle Modifier
    0;                        !- Coefficient 3 of Incident Angle Modifier

SOLARCOLLECTORPERFORMANCE:FLATPLATE,
    Chromagen Chromagen CR-140-A-P,    !- Name
    3.71,                     !- Gross Area
    Water,                    !- Test Fluid
    4.2e-05,                  !- Test Flow Rate
    Inlet,                    !- Test Correlation Type
    0.736,                    !- Coefficient 1 of Efficiency Equation
    3.88,                     !- Coefficient 2 of Efficiency Equation
    0,                        !- Coefficient 3 of Efficiency Equation